

###################################################################

[General]
network = CurrentNetwork
sim-time-limit = ${simtime=10, 100, 1000}s
repeat = 10

# Each router is output port buffered and the buffer 
# has a maximum capacity of 40 IP packets, regardless of their size.
#**.ppp[*].queueType = DropTailQueue 
#**.ppp[*].queue.frameCapacity = 40

**.networkConfiguratorModule = ""
**.ppp[*].numInputHooks = 1
**.ppp[*].inputHook[0].typename = "ThruputMeter"
**.ppp[*].inputHook[0].maxInterval = 0.001s
**.ppp[*].inputHook[0].batchSize = 10000
**.ppp[*].inputHook[0].**.vector-recording = true
**.vector-recording = false

# The routers currently support only IP packets containing
# TCP segments with a Maximum Segment Size (MSS) of 1000 Byte.
**.tcp.mss = 1000



[Config CurrentNetwork2]
sim-time-limit = 100s
# user settings
**.user[*].numTcpApps = 1
**.user[*].tcpApp[0].typename = "TCPBasicClientApp"
**.user[*].tcpApp[0].localPort = 2
**.user[*].tcpApp[0].numRequestsPerSession = 2
#**.user[*].tcpApp[0].numRequestsPerSession = exponential(5)
**.user[*].tcpApp[0].connectAddress = "internet"
**.user[*].tcpApp[0].connectPort = 1000
**.user[*].tcpApp[0].requestLength = 1KiB
**.user[*].tcpApp[0].thinkTime = 1s
**.user[*].tcpApp[0].replyLength = exponential(150KiB)
**.user[*].tcpApp[0].idleInterval = 1s #exponential(30s)

   
# internet settings
**.internet.numTcpApps = 1
**.internet.tcpApp[0].typename = "TCPGenericSrvApp"
**.internet.tcpApp[0].localPort = 1000
# TCPNewReno ??
#**.internet.tcpApp[0].echoFactor = 0

# Measurements have shown that the file size is exponentially
# distributed with a mean value of 150 kB
#**.internet.udpApp[*].messageLength = exponential(150 kB)
# The pause time is also exponentially distributed with a mean of 30 s.
#.internet.udpApp[*].sendInterval = exponential(30s)

# TCPNewReno
**.tcpType = "TCP"
#**.tcp.tcpAlgorithmClass = "TCPNewReno"
