

###################################################################

[General]
network = CurrentNetwork
sim-time-limit = ${simtime=10, 100, 1000}s
repeat = 10

**.networkConfiguratorModule = ""
**.ppp[*].numInputHooks = 1
**.ppp[*].inputHook[0].typename = "ThruputMeter"
**.ppp[*].inputHook[0].maxInterval = 0.001s
**.ppp[*].inputHook[0].batchSize = 10000
**.ppp[*].inputHook[0].**.vector-recording = true
**.vector-recording = false

# NIC configuration

# Each router is output port buffered and the buffer
# has a maximum capacity of 40 IP packets, regardless of their size:

# Define a simple DropTailQueue
**.ppp[*].queueType = "DropTailQueue"
# The queue is supposed to buffer 40 packets/frames
**.ppp[*].queue.frameCapacity = 40


[Config CurrentNetwork]
sim-time-limit = 100s


# user settings
# The TCPBasicClientApp opens a connection and sends a specified number of requests
# The requests contain the length of the response (replyLength)
# The thinktime specifies the time between those requests.
# When the number of requests of a session is sent, the session closes
# After the time specified in idleInterval a new session is opened.
**.user[*].numTcpApps = 1
**.user[*].tcpApp[0].typename = "TCPBasicClientApp"
**.user[*].tcpApp[0].localPort = -1
**.user[*].tcpApp[0].numRequestsPerSession = 1
**.user[*].tcpApp[0].connectAddress = "internet"
**.user[*].tcpApp[0].connectPort = 1000
**.user[*].tcpApp[0].requestLength = 200B
**.user[*].tcpApp[0].thinkTime = 0

# Measurements have shown that the file size is exponentially
# distributed with a mean value of 150 kB
**.user[*].tcpApp[0].replyLength = exponential(150KiB)
# The pause time is also exponentially distributed with a mean of 30 s.
**.user[*].tcpApp[0].idleInterval = exponential(30s)

   
# internet settings
# The TCPGenericSrvApp replys to a requests, which specifies the replylength.
# An unlimited number of sessions can be opened.
**.internet.numTcpApps = 1
**.internet.tcpApp[0].typename = "TCPGenericSrvApp"
**.internet.tcpApp[0].localPort = 1000
**.internet.tcpApp[0].echoFactor = 0

# This is important for the TCPGenericSrvApp to reply to the requests
**.tcpApp[*].dataTransferMode = "object"
# The routers currently support only IP packets containing
# TCP segments with a Maximum Segment Size (MSS) of 1000 Byte.
**.tcp.mss = 1000

# TCPNewReno
**.tcpType = "TCP"
**.tcp.tcpAlgorithmClass = "TCPNewReno"
# The upper bound of the congestion window is supposed to be 100
# Alex: I'm not quite sure if this does the trick.
**.tcp.advertisedWindow = 100



[Config VoiceTest]
sim-time-limit = 100s




# user settings
# The TCPBasicClientApp opens a connection and sends a specified number of requests
# The requests contain the length of the response (replyLength)
# The thinktime specifies the time between those requests.
# When the number of requests of a session is sent, the session closes
# After the time specified in idleInterval a new session is opened.
**.user[0].numUdpApps = 2
**.user[0].udpApp[0].typename = "VoIPApp"
**.user[0].udpApp[0].localPort = -1
**.user[0].udpApp[0].destPort = 1000
**.user[0].udpApp[0].destAddresses = "user[1]"
**.user[0].udpApp[0].sendInterval = 200ms
**.user[0].udpApp[0].messageLength = 1000B
**.user[0].udpApp[0].startTime = 1s
**.user[0].udpApp[0].maxDelay = 200ms

**.user[0].udpApp[1].typename = "VoIPApp"
**.user[0].udpApp[1].localPort = 1000
**.user[0].udpApp[1].destPort = -1
**.user[0].udpApp[1].destAddresses = ""
**.user[0].udpApp[1].sendInterval = 0s
**.user[0].udpApp[1].messageLength = 0B
**.user[0].udpApp[1].startTime = 0.5s
**.user[0].udpApp[1].maxDelay = 200ms

**.user[1].numUdpApps = 2
**.user[1].udpApp[0].typename = "VoIPApp"
**.user[1].udpApp[0].localPort = -1
**.user[1].udpApp[0].destPort = 1000
**.user[1].udpApp[0].destAddresses = "user[0]"
**.user[1].udpApp[0].sendInterval = 200ms
**.user[1].udpApp[0].messageLength = 1000B
**.user[1].udpApp[0].startTime = 1s
**.user[1].udpApp[0].maxDelay = 200ms

**.user[1].udpApp[1].typename = "VoIPApp"
**.user[1].udpApp[1].localPort = 1000
**.user[1].udpApp[1].destPort = -1
**.user[1].udpApp[1].destAddresses = ""
**.user[1].udpApp[1].sendInterval = 0s
**.user[1].udpApp[1].messageLength = 0B
**.user[1].udpApp[1].startTime = 0.5s
**.user[1].udpApp[1].maxDelay = 200ms


